@<TRIPOS>MOLECULE
SER
  224   231     1     0     0
SMALL
bcc


@<TRIPOS>ATOM
      1 CAY        -3.0180   12.6940   -7.7390 c3        1 SER     -0.072100
      2 HY1        -3.1300   13.7000   -8.1970 hc        1 SER      0.030367
      3 HY2        -3.5080   11.9500   -8.4030 hc        1 SER      0.030367
      4 HY3        -1.9570   12.4110   -7.9070 hc        1 SER      0.030367
      5 CY         -3.4570   12.5620   -6.3280 c         1 SER      0.603100
      6 OY         -4.2020   13.3550   -5.7880 o         1 SER     -0.613100
      7 N          -2.9960   11.4850   -5.6310 n         1 SER     -0.240900
      8 HN         -2.4490   10.7550   -6.0340 hn        1 SER      0.193500
      9 CA         -3.2750   11.2960   -4.2190 c3        1 SER     -0.074300
     10 HA         -3.0010   12.2610   -3.8190 h1        1 SER      0.083700
     11 CB         -4.7770   11.0280   -3.9390 c3        1 SER      0.218400
     12 HB1        -5.4120   11.6560   -4.6000 h1        1 SER      0.007700
     13 HB2        -4.9380    9.9370   -4.0770 h1        1 SER      0.007700
     14 OG         -5.1040   11.4050   -2.5540 oh        1 SER     -0.597800
     15 HG1        -6.0390   11.2300   -2.4240 ho        1 SER      0.410000
     16 C          -2.3810   10.2210   -3.6050 c         1 SER      0.615100
     17 O          -1.3550    9.8710   -4.1820 o         1 SER     -0.689100
     18 N          -2.7300    9.8470   -2.3200 n         2 TRP     -0.229900
     19 HN         -3.4040   10.3340   -1.7690 hn        2 TRP      0.223500
     20 CA         -2.0870    8.7770   -1.6120 c3        2 TRP     -0.040300
     21 HA         -1.0170    8.7920   -1.7530 h1        2 TRP      0.087700
     22 CB         -2.4660    8.7630   -0.0850 c3        2 TRP      0.069800
     23 HB1        -3.5500    8.5320   -0.0090 hc        2 TRP      0.026700
     24 HB2        -1.9550    7.8700    0.3350 hc        2 TRP      0.026700
     25 CG         -2.1190   10.0000    0.7000 cc        2 TRP     -0.139400
     26 CD1        -2.7250   11.3160    0.7330 cd        2 TRP     -0.245100
     27 HD1        -3.6610   11.6890    0.3450 h4        2 TRP      0.148000
     28 NE1        -1.9210   12.1670    1.4620 na        2 TRP      0.306600
     29 HE1        -1.9800   13.1310    1.6040 hn        2 TRP      0.122700
     30 CE2        -0.6830   11.6060    1.5660 ca        2 TRP     -0.215200
     31 CD2        -0.7760   10.2130    1.1310 ca        2 TRP     -0.074800
     32 CE3         0.3100    9.3970    1.1340 ca        2 TRP     -0.061000
     33 HE3         0.2250    8.3470    0.8970 ha        2 TRP      0.102000
     34 CZ3         1.4780    9.9270    1.6720 ca        2 TRP     -0.135000
     35 HZ3         2.3510    9.2990    1.7730 ha        2 TRP      0.096000
     36 CZ2         0.5000   12.0980    2.0150 ca        2 TRP     -0.090000
     37 HZ2         0.5320   13.1010    2.4130 ha        2 TRP      0.110000
     38 CH2         1.5620   11.2550    2.1570 ca        2 TRP     -0.089000
     39 HH2         2.4350   11.7310    2.5770 ha        2 TRP      0.102000
     40 C          -2.7050    7.5000   -2.2390 c         2 TRP      0.570100
     41 O          -3.9510    7.2710   -2.1470 o         2 TRP     -0.621100
     42 N          -1.8840    6.5850   -2.7900 n         3 THR     -0.207900
     43 HN         -0.9050    6.7680   -2.7450 hn        3 THR      0.193500
     44 CA         -2.2320    5.2150   -3.2100 c3        3 THR     -0.104300
     45 HA         -3.2980    5.0990   -3.0830 h1        3 THR      0.089700
     46 CB         -1.8860    4.8140   -4.6670 c3        3 THR      0.206100
     47 HB         -2.4160    3.8740   -4.9320 h1        3 THR      0.008700
     48 OG1        -0.5150    4.7230   -4.9330 oh        3 THR     -0.593800
     49 HG1        -0.3350    3.8800   -5.3550 ho        3 THR      0.398000
     50 CG2        -2.4600    5.8940   -5.5410 c3        3 THR     -0.020100
     51 HG21       -2.3070    5.6930   -6.6230 hc        3 THR      0.021700
     52 HG22       -3.5490    6.0280   -5.3670 hc        3 THR      0.021700
     53 HG23       -1.8440    6.8060   -5.3910 hc        3 THR      0.021700
     54 C          -1.5150    4.2280   -2.3360 c         3 THR      0.582100
     55 O          -0.6140    4.5990   -1.6070 o         3 THR     -0.648100
     56 N          -2.0230    2.9910   -2.4240 n         4 TRP     -0.202900
     57 HN         -2.7940    2.8540   -3.0410 hn        4 TRP      0.176500
     58 CA         -1.2710    1.8680   -1.8190 c3        4 TRP     -0.052300
     59 HA         -0.8370    2.1300   -0.8650 h1        4 TRP      0.078700
     60 CB         -2.1150    0.5190   -1.5230 c3        4 TRP      0.072800
     61 HB1        -3.0920    0.8590   -1.1180 hc        4 TRP      0.032200
     62 HB2        -2.2590   -0.1230   -2.4190 hc        4 TRP      0.032200
     63 CG         -1.5620   -0.3650   -0.3600 cc        4 TRP     -0.175400
     64 CD1        -1.0870   -1.6010   -0.5800 cd        4 TRP     -0.229100
     65 HD1        -0.7420   -1.7700   -1.5890 h4        4 TRP      0.143000
     66 NE1        -0.8930   -2.2720    0.6340 na        4 TRP      0.322600
     67 HE1        -0.2690   -3.0220    0.6580 hn        4 TRP      0.132700
     68 CE2        -1.2150   -1.3880    1.6580 ca        4 TRP     -0.217200
     69 CD2        -1.6380   -0.1390    1.0540 ca        4 TRP     -0.085800
     70 CE3        -2.0110    0.9290    1.8790 ca        4 TRP     -0.061000
     71 HE3        -2.3560    1.8770    1.4950 ha        4 TRP      0.109000
     72 CZ3        -2.1230    0.6480    3.2690 ca        4 TRP     -0.132000
     73 HZ3        -2.7170    1.3430    3.8440 ha        4 TRP      0.110000
     74 CZ2        -1.2460   -1.6380    3.0090 ca        4 TRP     -0.099000
     75 HZ2        -0.9730   -2.5850    3.4530 ha        4 TRP      0.105000
     76 CH2        -1.7750   -0.5880    3.8190 ca        4 TRP     -0.089000
     77 HH2        -1.9060   -0.8620    4.8550 ha        4 TRP      0.101000
     78 C          -0.1630    1.4400   -2.7430 c         4 TRP      0.587100
     79 O          -0.2140    1.5990   -3.9360 o         4 TRP     -0.626100
     80 N           0.9470    0.9500   -2.1390 n         5 GLU     -0.223900
     81 HN          1.1460    0.9630   -1.1630 hn        5 GLU      0.189500
     82 CA          2.0400    0.5200   -3.0370 c3        5 GLU     -0.053300
     83 HA          1.7620    0.1320   -4.0050 h1        5 GLU      0.074700
     84 CB          2.9540    1.7930   -3.2000 c3        5 GLU     -0.031400
     85 HB1         2.4320    2.5620   -3.8080 hc        5 GLU      0.023200
     86 HB2         3.1220    2.2130   -2.1850 hc        5 GLU      0.023200
     87 CG          4.3080    1.5960   -3.9270 c3        5 GLU     -0.121400
     88 HG1         4.8560    0.6820   -3.6120 hc        5 GLU      0.034700
     89 HG2         4.1470    1.6120   -5.0270 hc        5 GLU      0.034700
     90 CD          5.1010    2.8400   -3.6330 c         5 GLU      1.050600
     91 OE1         5.1700    3.7470   -4.5420 o         5 GLU     -0.892800
     92 OE2         5.7350    2.9290   -2.5430 o         5 GLU     -0.892800
     93 C           2.7840   -0.5320   -2.2740 c         5 GLU      0.619100
     94 O           3.5500   -0.2070   -1.3410 o         5 GLU     -0.671100
     95 N           2.5250   -1.7870   -2.6240 n         6 GLY     -0.178900
     96 HN          1.8990   -1.9570   -3.3810 hn        6 GLY      0.183500
     97 CA          3.0890   -2.9790   -1.9530 c3        6 GLY     -0.034000
     98 HA1         4.1470   -2.8910   -1.7560 h1        6 GLY      0.056200
     99 HA2         2.9430   -3.7930   -2.6480 h1        6 GLY      0.056200
    100 C           2.3980   -3.3930   -0.6490 c         6 GLY      0.595100
    101 O           1.2780   -3.7940   -0.6080 o         6 GLY     -0.633100
    102 N           3.0730   -3.1010    0.4200 n         7 ASN     -0.292900
    103 HN          4.0110   -2.8020    0.2610 hn        7 ASN      0.244500
    104 CA          2.6470   -3.2630    1.7940 c3        7 ASN     -0.040300
    105 HA          1.6790   -3.7430    1.7710 h1        7 ASN      0.075700
    106 CB          3.6400   -4.2090    2.4950 c3        7 ASN     -0.102400
    107 HB1         3.1930   -4.3580    3.5010 hc        7 ASN      0.053200
    108 HB2         3.5820   -5.1820    1.9620 hc        7 ASN      0.053200
    109 CG          4.9780   -3.7070    2.6090 c         7 ASN      0.580100
    110 OD1         5.5810   -3.0480    1.7650 o         7 ASN     -0.659100
    111 ND2         5.7280   -4.1880    3.6610 n         7 ASN     -0.193000
    112 HD21        6.6320   -3.7980    3.8360 hn        7 ASN      0.151500
    113 HD22        5.3020   -4.7740    4.3500 hn        7 ASN      0.151500
    114 C           2.3650   -2.0300    2.5600 c         7 ASN      0.597100
    115 O           2.2530   -2.0660    3.7390 o         7 ASN     -0.615100
    116 N           2.3840   -0.8170    1.9470 n         8 LYS     -0.215900
    117 HN          2.2920   -0.6890    0.9620 hn        8 LYS      0.186500
    118 CA          2.4140    0.4100    2.6930 c3        8 LYS     -0.038300
    119 HA          1.6270    0.4150    3.4330 h1        8 LYS      0.061700
    120 CB          3.8050    0.6070    3.4440 c3        8 LYS     -0.046400
    121 HB1         3.7760    1.6620    3.7900 hc        8 LYS      0.038700
    122 HB2         3.7010   -0.0530    4.3320 hc        8 LYS      0.038700
    123 CG          5.0060    0.2030    2.5720 c3        8 LYS     -0.042400
    124 HG1         5.6150   -0.5060    3.1730 hc        8 LYS      0.030700
    125 HG2         4.7160   -0.4300    1.7060 hc        8 LYS      0.030700
    126 CD          5.8590    1.4300    2.2040 c3        8 LYS     -0.049400
    127 HD1         5.3340    2.3400    2.5660 hc        8 LYS      0.045700
    128 HD2         6.8140    1.3650    2.7670 hc        8 LYS      0.045700
    129 CE          6.1780    1.6100    0.6680 c3        8 LYS      0.033800
    130 HE1         6.9080    2.4480    0.6710 hx        8 LYS      0.056700
    131 HE2         6.5820    0.6610    0.2550 hx        8 LYS      0.056700
    132 NZ          5.0730    1.9060   -0.1820 n4        8 LYS     -0.246600
    133 HZ1         4.4890    2.6670    0.2180 hn        8 LYS      0.303133
    134 HZ2         5.3550    2.1670   -1.1490 hn        8 LYS      0.303133
    135 HZ3         4.4550    1.0970   -0.3940 hn        8 LYS      0.303133
    136 C           2.0960    1.5670    1.7840 c         8 LYS      0.605100
    137 O           2.2660    1.4170    0.5840 o         8 LYS     -0.668100
    138 N           1.5130    2.7380    2.2680 n         9 TRP     -0.192900
    139 HN          1.2250    2.8010    3.2200 hn        9 TRP      0.183500
    140 CA          1.1880    3.9600    1.5750 c3        9 TRP     -0.048300
    141 HA          0.4480    3.6410    0.8560 h1        9 TRP      0.067700
    142 CB          0.7940    4.9920    2.5610 c3        9 TRP      0.041800
    143 HB1         1.6420    5.2480    3.2320 hc        9 TRP      0.042200
    144 HB2         0.5450    5.9320    2.0240 hc        9 TRP      0.042200
    145 CG         -0.4060    4.7820    3.4450 cc        9 TRP     -0.175400
    146 CD1        -0.5430    4.4040    4.7400 cd        9 TRP     -0.244100
    147 HD1         0.2910    4.0890    5.3490 h4        9 TRP      0.143000
    148 NE1        -1.8760    4.1050    4.9650 na        9 TRP      0.313600
    149 HE1        -2.2410    3.6400    5.7420 hn        9 TRP      0.125700
    150 CE2        -2.6040    4.3090    3.8760 ca        9 TRP     -0.213200
    151 CD2        -1.7210    4.7870    2.9140 ca        9 TRP     -0.086800
    152 CE3        -2.1800    5.1150    1.6890 ca        9 TRP     -0.063000
    153 HE3        -1.5070    5.5010    0.9380 ha        9 TRP      0.104000
    154 CZ3        -3.5460    5.1460    1.4870 ca        9 TRP     -0.116000
    155 HZ3        -3.9140    5.4260    0.5120 ha        9 TRP      0.108000
    156 CZ2        -3.9460    4.1160    3.6150 ca        9 TRP     -0.092000
    157 HZ2        -4.6560    3.6720    4.2990 ha        9 TRP      0.114000
    158 CH2        -4.4250    4.6330    2.4350 ca        9 TRP     -0.081000
    159 HH2        -5.4850    4.6750    2.2330 ha        9 TRP      0.109000
    160 C           2.3260    4.4250    0.6880 c         9 TRP      0.623100
    161 O           3.5090    4.0820    0.8160 o         9 TRP     -0.686100
    162 N           1.9690    5.3500   -0.2310 n        10 THR     -0.195900
    163 HN          1.0210    5.3460   -0.5390 hn       10 THR      0.194500
    164 CA          3.0300    6.2220   -0.9250 c3       10 THR     -0.068300
    165 HA          3.8150    6.5440   -0.2570 h1       10 THR      0.078700
    166 CB          3.5790    5.5010   -2.0850 c3       10 THR      0.198100
    167 HB          3.7750    4.4580   -1.7550 h1       10 THR      0.012700
    168 OG1         4.7430    6.0830   -2.5680 oh       10 THR     -0.676800
    169 HG1         5.2280    5.2620   -2.6730 ho       10 THR      0.466000
    170 CG2         2.5480    5.3120   -3.1970 c3       10 THR     -0.069100
    171 HG21        3.0550    4.9480   -4.1160 hc       10 THR      0.025033
    172 HG22        1.6670    4.6830   -2.9500 hc       10 THR      0.025033
    173 HG23        2.0330    6.2430   -3.5190 hc       10 THR      0.025033
    174 C           2.3420    7.4960   -1.3690 c        10 THR      0.601100
    175 O           1.0900    7.5220   -1.4430 o        10 THR     -0.636100
    176 N           3.0280    8.5860   -1.7220 n        11 TRP     -0.194900
    177 HN          4.0050    8.6940   -1.5580 hn       11 TRP      0.185500
    178 CA          2.4540    9.7210   -2.4240 c3       11 TRP     -0.062300
    179 HA          1.4170    9.7900   -2.1310 h1       11 TRP      0.092700
    180 CB          2.9590   11.0870   -1.9340 c3       11 TRP      0.066800
    181 HB1         2.6050   11.2180   -0.8890 hc       11 TRP      0.031700
    182 HB2         4.0630   10.9630   -1.9150 hc       11 TRP      0.031700
    183 CG          2.6610   12.2910   -2.8010 cc       11 TRP     -0.145400
    184 CD1         3.4160   13.1060   -3.6600 cd       11 TRP     -0.243100
    185 HD1         4.3610   12.9640   -4.1630 h4       11 TRP      0.143000
    186 NE1         2.6290   14.0750   -4.1440 na       11 TRP      0.269600
    187 HE1         2.9020   14.6400   -4.8910 hn       11 TRP      0.124700
    188 CE2         1.4490   14.0750   -3.5400 ca       11 TRP     -0.208200
    189 CD2         1.3960   12.9330   -2.6640 ca       11 TRP     -0.092800
    190 CE3         0.2460   12.5890   -1.9440 ca       11 TRP     -0.066000
    191 HE3         0.2420   11.7540   -1.2590 ha       11 TRP      0.118000
    192 CZ3        -0.8050   13.4960   -2.0030 ca       11 TRP     -0.133000
    193 HZ3        -1.7000   13.3000   -1.4310 ha       11 TRP      0.103000
    194 CZ2         0.2900   14.8580   -3.6690 ca       11 TRP     -0.094000
    195 HZ2         0.3060   15.6850   -4.3640 ha       11 TRP      0.115000
    196 CH2        -0.8440   14.5920   -2.8720 ca       11 TRP     -0.076000
    197 HH2        -1.7170   15.2160   -2.9920 ha       11 TRP      0.116000
    198 C           2.6550    9.5530   -3.9250 c        11 TRP      0.602100
    199 O           3.7700    9.2720   -4.4140 o        11 TRP     -0.711100
    200 C           0.3730   10.8600   -6.4990 c        12 LYS      0.573100
    201 O          -0.4650   10.6140   -7.3310 o        12 LYS     -0.614100
    202 NT          0.3410   12.0080   -5.7950 n        12 LYS     -0.234000
    203 HT1        -0.4610   12.5720   -5.9940 hn       12 LYS      0.148000
    204 HT2         1.0840   12.2820   -5.1840 hn       12 LYS      0.148000
    205 N           1.4800    9.5730   -4.6180 n        12 LYS     -0.229900
    206 HN          0.5960    9.6640   -4.1680 hn       12 LYS      0.243500
    207 CA          1.4460    9.7940   -6.0790 c3       12 LYS     -0.053300
    208 HA          2.3600   10.2950   -6.3610 h1       12 LYS      0.066700
    209 CB          1.3140    8.4660   -6.8950 c3       12 LYS     -0.046400
    210 HB1         0.2550    8.1370   -6.9510 hc       12 LYS      0.048700
    211 HB2         1.4800    8.7240   -7.9630 hc       12 LYS      0.048700
    212 CG          2.3040    7.3250   -6.5690 c3       12 LYS     -0.051400
    213 HG1         2.4580    7.1310   -5.4860 hc       12 LYS      0.030200
    214 HG2         1.9050    6.3360   -6.8810 hc       12 LYS      0.030200
    215 CD          3.7550    7.5380   -7.1950 c3       12 LYS     -0.049400
    216 HD1         3.7230    7.6620   -8.2980 hc       12 LYS      0.043200
    217 HD2         4.2470    8.4330   -6.7570 hc       12 LYS      0.043200
    218 CE          4.5830    6.2750   -6.8610 c3       12 LYS      0.002800
    219 HE1         3.8700    5.4370   -7.0170 hx       12 LYS      0.071200
    220 HE2         5.3640    6.1500   -7.6410 hx       12 LYS      0.071200
    221 NZ          5.0660    6.3710   -5.4540 n4       12 LYS     -0.121600
    222 HZ1         5.0960    5.3700   -5.1770 hn       12 LYS      0.273800
    223 HZ2         6.0630    6.6640   -5.4010 hn       12 LYS      0.273800
    224 HZ3         4.4990    6.9500   -4.8020 hn       12 LYS      0.273800
@<TRIPOS>BOND
     1    1    2 1   
     2    1    3 1   
     3    1    4 1   
     4    1    5 1   
     5    5    6 2   
     6    5    7 1   
     7    7    8 1   
     8    7    9 1   
     9    9   10 1   
    10    9   11 1   
    11    9   16 1   
    12   11   12 1   
    13   11   13 1   
    14   11   14 1   
    15   14   15 1   
    16   16   17 2   
    17   16   18 1   
    18   18   19 1   
    19   18   20 1   
    20   20   21 1   
    21   20   22 1   
    22   20   40 1   
    23   22   23 1   
    24   22   24 1   
    25   22   25 1   
    26   25   26 2   
    27   25   31 1   
    28   26   27 1   
    29   26   28 1   
    30   28   29 1   
    31   28   30 1   
    32   30   31 ar  
    33   30   36 ar  
    34   31   32 ar  
    35   32   33 1   
    36   32   34 ar  
    37   34   35 1   
    38   34   38 ar  
    39   36   37 1   
    40   36   38 ar  
    41   38   39 1   
    42   40   41 2   
    43   40   42 1   
    44   42   43 1   
    45   42   44 1   
    46   44   45 1   
    47   44   46 1   
    48   44   54 1   
    49   46   47 1   
    50   46   48 1   
    51   46   50 1   
    52   48   49 1   
    53   50   51 1   
    54   50   52 1   
    55   50   53 1   
    56   54   55 2   
    57   54   56 1   
    58   56   57 1   
    59   56   58 1   
    60   58   59 1   
    61   58   60 1   
    62   58   78 1   
    63   60   61 1   
    64   60   62 1   
    65   60   63 1   
    66   63   64 2   
    67   63   69 1   
    68   64   65 1   
    69   64   66 1   
    70   66   67 1   
    71   66   68 1   
    72   68   69 ar  
    73   68   74 ar  
    74   69   70 ar  
    75   70   71 1   
    76   70   72 ar  
    77   72   73 1   
    78   72   76 ar  
    79   74   75 1   
    80   74   76 ar  
    81   76   77 1   
    82   78   79 2   
    83   78   80 1   
    84   80   81 1   
    85   80   82 1   
    86   82   83 1   
    87   82   84 1   
    88   82   93 1   
    89   84   85 1   
    90   84   86 1   
    91   84   87 1   
    92   87   88 1   
    93   87   89 1   
    94   87   90 1   
    95   90   91 1   
    96   90   92 1   
    97   93   94 2   
    98   93   95 1   
    99   95   96 1   
   100   95   97 1   
   101   97   98 1   
   102   97   99 1   
   103   97  100 1   
   104  100  101 2   
   105  100  102 1   
   106  102  103 1   
   107  102  104 1   
   108  104  105 1   
   109  104  106 1   
   110  104  114 1   
   111  106  107 1   
   112  106  108 1   
   113  106  109 1   
   114  109  110 2   
   115  109  111 1   
   116  111  112 1   
   117  111  113 1   
   118  114  115 2   
   119  114  116 1   
   120  116  117 1   
   121  116  118 1   
   122  118  119 1   
   123  118  120 1   
   124  118  136 1   
   125  120  121 1   
   126  120  122 1   
   127  120  123 1   
   128  123  124 1   
   129  123  125 1   
   130  123  126 1   
   131  126  127 1   
   132  126  128 1   
   133  126  129 1   
   134  129  130 1   
   135  129  131 1   
   136  129  132 1   
   137  132  133 1   
   138  132  134 1   
   139  132  135 1   
   140  136  137 2   
   141  136  138 1   
   142  138  139 1   
   143  138  140 1   
   144  140  141 1   
   145  140  142 1   
   146  140  160 1   
   147  142  143 1   
   148  142  144 1   
   149  142  145 1   
   150  145  146 2   
   151  145  151 1   
   152  146  147 1   
   153  146  148 1   
   154  148  149 1   
   155  148  150 1   
   156  150  151 ar  
   157  150  156 ar  
   158  151  152 ar  
   159  152  153 1   
   160  152  154 ar  
   161  154  155 1   
   162  154  158 ar  
   163  156  157 1   
   164  156  158 ar  
   165  158  159 1   
   166  160  161 2   
   167  160  162 1   
   168  162  163 1   
   169  162  164 1   
   170  164  165 1   
   171  164  166 1   
   172  164  174 1   
   173  166  167 1   
   174  166  168 1   
   175  166  170 1   
   176  168  169 1   
   177  170  171 1   
   178  170  172 1   
   179  170  173 1   
   180  174  175 2   
   181  174  176 1   
   182  176  177 1   
   183  176  178 1   
   184  178  179 1   
   185  178  180 1   
   186  178  198 1   
   187  180  181 1   
   188  180  182 1   
   189  180  183 1   
   190  183  184 2   
   191  183  189 1   
   192  184  185 1   
   193  184  186 1   
   194  186  187 1   
   195  186  188 1   
   196  188  189 ar  
   197  188  194 ar  
   198  189  190 ar  
   199  190  191 1   
   200  190  192 ar  
   201  192  193 1   
   202  192  196 ar  
   203  194  195 1   
   204  194  196 ar  
   205  196  197 1   
   206  198  199 2   
   207  198  205 1   
   208  200  201 2   
   209  200  202 1   
   210  200  207 1   
   211  202  203 1   
   212  202  204 1   
   213  205  206 1   
   214  205  207 1   
   215  207  208 1   
   216  207  209 1   
   217  209  210 1   
   218  209  211 1   
   219  209  212 1   
   220  212  213 1   
   221  212  214 1   
   222  212  215 1   
   223  215  216 1   
   224  215  217 1   
   225  215  218 1   
   226  218  219 1   
   227  218  220 1   
   228  218  221 1   
   229  221  222 1   
   230  221  223 1   
   231  221  224 1   
@<TRIPOS>SUBSTRUCTURE
     1 SER         1 TEMP              0 ****  ****    0 ROOT
